STAAD SPACE
START JOB INFORMATION
ENGINEER DATE 26-Feb-26
END JOB INFORMATION
INPUT WIDTH 79
UNIT METER KN
JOINT COORDINATES
1 0 0 12.6; 2 3 0 12.6; 3 5.97 0 12.6; 4 15.72 0 12.6; 5 20.05 0 12.6;
6 24.75 0 12.6; 7 28.4 0 12.6; 8 32.97 0 12.6; 9 45.67 0 12.6; 11 50 0 12.6;
12 0 0 7; 13 3 0 7; 14 5.97 0 7; 15 15.72 0 7; 16 20.05 0 7; 17 24.75 0 7;
18 28.4 0 7; 19 32.97 0 7; 20 45.67 0 7; 24 0 0 0; 25 0 0 4.8; 26 3.95 0 0;
27 15.95 0 0; 28 20.27 0 0; 29 28.12 0 0; 30 32.7 0 0; 31 44.6 0 0; 32 50 0 0;
39 3.95 0 4.8; 40 15.95 0 4.8; 41 20.27 0 4.8; 42 28.12 0 4.8; 43 32.7 0 4.8;
44 44.6 0 4.8; 45 50 0 4.8; 46 28.12 0 -4.5; 47 20.27 0 -4.5; 48 22.27 0 0;
49 26.12 0 0; 59 0 3.6 12.6; 60 3 3.6 12.6; 61 5.97 3.6 12.6;
62 15.72 3.6 12.6; 63 20.05 3.6 12.6; 64 24.75 3.6 12.6; 65 28.4 3.6 12.6;
66 32.97 3.6 12.6; 67 45.67 3.6 12.6; 69 50 3.6 12.6; 70 0 3.6 7; 71 3 3.6 7;
72 5.97 3.6 7; 73 15.72 3.6 7; 74 20.05 3.6 7; 75 24.75 3.6 7; 76 28.4 3.6 7;
77 32.97 3.6 7; 78 45.67 3.6 7; 80 0 3.6 0; 81 0 3.6 4.8; 82 3.95 3.6 0;
83 15.95 3.6 0; 84 20.27 3.6 0; 85 28.12 3.6 0; 86 32.7 3.6 0; 87 44.6 3.6 0;
88 50 3.6 0; 95 3.95 3.6 4.8; 96 15.95 3.6 4.8; 97 20.27 3.6 4.8;
98 28.12 3.6 4.8; 99 32.7 3.6 4.8; 100 44.6 3.6 4.8; 101 50 3.6 4.8;
102 28.12 3.6 -4.5; 103 20.27 3.6 -4.5; 104 22.27 3.6 0; 105 26.12 3.6 0;
116 6.25 3.6 0; 117 12.1 3.6 0; 118 18.35 3.6 0; 119 24.55 3.6 0;
120 30.75 3.6 0; 121 36.95 3.6 0; 122 43.15 3.6 0; 123 45.45 3.6 0;
126 6.25 3.6 4.8; 127 12.1 3.6 4.8; 128 18.35 3.6 4.8; 129 24.55 3.6 4.8;
130 30.75 3.6 4.8; 131 36.95 3.6 4.8; 132 43.15 3.6 4.8; 133 41.45 3.6 2.8;
# ... 62 like lines cut
MEMBER INCIDENCES
65 1 59; 66 2 60; 67 3 61; 68 4 62; 69 5 63; 70 6 64; 71 7 65; 72 8 66;
73 9 67; 75 11 69; 76 12 70; 77 13 71; 78 14 72; 79 15 73; 80 16 74; 81 17 75;
82 18 76; 83 19 77; 84 20 78; 86 24 80; 87 25 81; 88 26 82; 89 27 83; 90 28 84;
91 29 85; 92 30 86; 93 31 87; 94 32 88; 101 39 95; 102 40 96; 103 41 97;
104 42 98; 105 43 99; 106 44 100; 107 45 101; 108 46 102; 109 47 103;
110 48 104; 111 49 105; 121 59 60; 122 60 61; 123 61 62; 124 62 63; 125 63 64;
126 64 65; 127 65 66; 129 67 66; 130 67 69; 131 88 87; 132 86 87; 133 86 85;
134 67 78; 135 78 77; 136 77 66; 137 65 76; 138 77 76; 139 75 64; 140 75 74;
141 74 63; 142 74 73; 143 62 73; 144 72 73; 145 72 71; 146 71 60; 147 72 61;
148 83 84; 149 82 83; 150 82 80; 151 80 81; 152 70 81; 153 70 59; 158 81 95;
159 96 95; 160 97 96; 161 98 99; 162 99 100; 163 100 87; 164 99 86; 165 98 85;
166 97 84; 167 96 83; 168 95 82; 169 100 101; 170 88 101; 171 69 101;
172 102 85; 173 102 103; 174 103 84; 175 105 85; 176 104 84; 183 80 116;
184 116 117; 185 118 117; 186 118 119; 187 119 120; 188 120 121; 189 121 122;
190 122 123; 191 123 88; 195 132 131; 196 131 130; 197 130 129; 198 129 128;
199 128 127; 200 127 126; 201 126 81; 203 126 116; 204 117 127; 205 118 128;
206 119 129; 207 120 130; 208 121 131; 209 122 132; 211 156 69; 212 69 144;
213 71 148; 214 71 70; 217 60 137; 218 137 138; 219 138 139; 220 139 140;
221 140 141; 222 141 142; 223 142 143; 224 143 144; 225 144 155; 226 156 155;
227 155 154; 228 154 153; 229 153 152; 230 151 152; 231 151 150; 232 150 149;
# ... 92 like lines cut
DEFINE MATERIAL START
ISOTROPIC STEEL
E 2.05e+08
POISSON 0.3
DENSITY 76.8195
ALPHA 1.2e-05
DAMP 0.03
TYPE STEEL
STRENGTH FY 253200 FU 407800 RY 1.5 RT 1.2
END DEFINE MATERIAL
MEMBER PROPERTY AMERICAN
195 476 TABLE ST W18X50
86 468 472 477 494 509 556 588 735 739 744 756 761 776 985 998 TABLE ST W18X76
65 76 587 698 733 803 812 815 TABLE ST W8X28
66 775 984 992 TABLE ST W16X67
67 78 103 104 123 144 204 402 423 485 669 690 732 801 813 934 957 -
1014 TABLE ST W8X31
68 79 80 108 109 584 585 751 TABLE ST W5X19
69 TO 71 81 82 110 111 134 136 137 139 141 143 146 147 235 TO 241 413 415 -
416 418 420 422 425 426 432 511 TO 517 548 549 557 560 561 570 571 679 680 -
682 683 685 687 689 692 693 699 710 TO 714 778 TO 784 795 TO 797 807 866 -
871 893 894 940 946 947 949 950 952 954 956 959 960 966 1018 1027 TO 1032 -
1033 TABLE ST W6X15
72 83 90 91 171 173 450 482 574 582 583 717 749 798 808 814 821 889 891 939 -
941 964 965 980 1001 TABLE ST W8X24
73 187 410 431 772 816 874 943 978 1006 TABLE ST W12X30
75 835 TABLE ST W21X101
77 734 818 944 1024 TABLE ST W12X53
84 122 164 167 168 442 505 573 586 790 794 804 809 888 892 919 TABLE ST W10X22
87 609 TABLE ST W30X90
88 93 129 132 135 149 159 162 203 209 408 411 414 428 438 441 480 675 678 -
681 695 705 708 937 945 948 962 968 971 1015 TABLE ST W10X49
89 92 208 247 636 752 817 819 824 1004 1038 TABLE ST W8X35
94 TABLE ST W27X94
101 106 TABLE ST W10X54
102 190 979 999 1005 TABLE ST W12X45
105 TABLE ST W8X40
107 TABLE ST W21X132
121 153 165 166 225 409 443 446 447 474 501 553 564 565 572 667 676 709 768 -
805 806 839 856 870 876 880 884 885 887 928 1003 TABLE ST W8X18
124 126 142 160 172 175 176 244 403 405 427 439 455 497 506 520 591 635 672 -
688 694 706 722 764 787 826 861 869 879 898 899 933 961 969 981 982 -
1035 TABLE ST W6X8.5
125 140 206 404 419 483 550 TO 552 562 671 686 750 953 972 TO 977 -
1002 TABLE ST W4X13
127 148 412 546 563 613 670 673 867 868 886 TABLE ST W6X12
130 169 827 831 877 878 TABLE ST W10X15
131 145 150 424 429 437 507 677 691 697 754 765 774 793 855 TABLE ST W12X26
133 138 161 174 406 417 421 440 684 707 951 955 970 TABLE ST W6X9
151 211 449 716 802 1023 TABLE ST W12X40
152 481 748 789 820 1000 TABLE ST W10X39
158 629 757 TABLE ST W12X19
163 221 465 475 498 742 763 847 848 875 896 927 TABLE ST W10X26
170 547 792 932 TABLE ST W14X43
183 462 478 500 521 729 745 788 TABLE ST W18X97
184 233 464 469 488 495 766 841 849 854 857 TABLE ST W18X55
185 188 199 228 232 558 607 608 634 736 810 846 882 918 926 -
1010 TABLE ST W21X48
186 226 785 936 1034 TABLE ST W16X36
189 743 TABLE ST W18X60
191 TABLE ST W24X131
196 755 830 838 883 902 910 921 929 TABLE ST W21X44
197 430 823 862 TABLE ST W10X33
198 487 604 631 990 TABLE ST W14X34
200 499 508 740 771 TABLE ST W16X50
201 TABLE ST W21X111
205 207 448 484 554 559 569 617 799 822 843 881 915 938 TABLE ST W6X20
212 602 625 633 850 858 916 TABLE ST W24X68
213 489 493 568 575 760 TABLE ST W21X62
214 400 490 696 920 1009 TABLE ST W12X22
217 897 TABLE ST W21X73
218 242 467 473 504 1019 TABLE ST W16X45
219 223 229 231 518 832 840 904 912 967 TABLE ST W16X40
220 612 TABLE ST W16X31
222 230 620 623 958 1007 TABLE ST W18X35
224 TABLE ST W18X65
227 762 TABLE ST W16X57
# ... 24 like lines cut
800 986 TO 988 997 1026 1037 TABLE ST W12X72
811 1011 1016 1022 TABLE ST W12X58
825 TABLE ST W14X90
828 836 TABLE ST W27X84
853 900 908 914 922 923 TABLE ST W24X76
860 890 1013 TABLE ST W14X48
864 TABLE ST W14X30
872 942 993 TO 996 1021 1025 TABLE ST W12X65
873 TABLE ST W8X13
983 1017 TABLE ST W16X77
991 TABLE ST W24X104
CONSTANTS
MATERIAL STEEL ALL
SUPPORTS
1 TO 9 11 TO 20 24 TO 32 39 TO 49 FIXED
DEFINE WIND LOAD
TYPE 1 WIND 1
<! STAAD PRO GENERATED DATA DO NOT MODIFY !!!
ASCE-7-2010:PARAMS 50.000 M/SEC 0 1 1 0 0.000 FT 0.000 FT 0.000 FT 1 1 -
12.600 M 14.600 M 50.000 M 2.000 0.030 0 0 0 0 0 0.768 1.000 1.000 0.850 0 0 -
0 0 0.819 0.800 -0.550
!> END GENERATED DATA BLOCK
INT 1.04116 1.04116 1.05925 1.07586 1.09126 1.10563 1.11912 1.13186 1.14394 -
1.15543 1.16641 1.17691 1.18699 1.19669 1.20603 0.0952829 HEIG 0 4.572 -
5.18954 5.80708 6.42461 7.04215 7.65969 8.27723 8.89477 9.51231 10.1299 -
10.7474 11.3649 11.9825 12.6 12.6
EXP 1 JOINT 1 TO 9 11 TO 20 24 TO 32 39 TO 49 59 TO 67 69 TO 78 80 TO 88 95 -
96 TO 105 116 TO 123 126 TO 133 137 TO 144 148 TO 158 202 TO 210 212 TO 221 -
223 TO 231 238 TO 244 247 248 259 TO 266 269 TO 276 280 TO 287 291 TO 301 -
332 TO 340 342 TO 351 353 TO 361 368 TO 374 377 378 389 TO 396 399 TO 406 -
410 TO 417 421 TO 431
DEFINE UBC LOAD
ZONE 0.075 I 1 RWX 3 RWZ 3 STYP 1
MEMBER WEIGHT
77 TO 84 101 TO 106 134 TO 147 158 TO 169 195 TO 201 203 TO 209 213 214 225 -
227 TO 233 235 TO 241 245 247 413 TO 426 437 TO 448 472 TO 478 480 TO 486 -
489 490 501 503 TO 509 511 TO 517 521 523 558 TO 565 582 TO 587 610 TO 617 -
626 TO 633 636 680 TO 693 704 TO 715 739 TO 745 747 TO 753 756 757 768 770 -
771 TO 776 778 TO 784 788 790 802 TO 809 819 TO 824 836 TO 843 852 TO 859 -
862 874 TO 881 891 TO 896 908 TO 915 924 TO 931 934 947 TO 960 967 TO 978 -
992 TO 1005 1008 1009 1018 1020 TO 1033 1036 1038 UNI 5
LOAD 1 LOADTYPE Seismic  TITLE EX
UBC LOAD X 1
LOAD 2 LOADTYPE Seismic  TITLE EZ
UBC LOAD Z 1
LOAD 3 LOADTYPE Wind  TITLE WX
WIND LOAD X 1 TYPE 1 YR 0 12.6
LOAD 4 LOADTYPE Wind  TITLE WZ
WIND LOAD Z 1 TYPE 1 YR 0 12.6
LOAD 5 LOADTYPE Dead  TITLE DL
SELFWEIGHT Y -1 
MEMBER LOAD
121 TO 127 129 TO 153 158 TO 171 175 176 183 TO 191 195 TO 201 203 TO 209 -
211 TO 214 217 TO 233 235 TO 242 244 TO 247 UNI GY -6.68
400 TO 406 408 TO 432 437 TO 450 454 455 462 TO 470 472 TO 478 480 TO 490 -
493 TO 509 511 TO 518 520 TO 523 UNI GY -5.73
667 TO 673 675 TO 699 704 TO 717 721 722 729 TO 737 739 TO 745 747 TO 757 -
760 TO 776 778 TO 785 787 TO 790 UNI GY -4.78
172 TO 174 UNI GY -0.63
131 TO 133 148 TO 150 172 TO 176 183 TO 191 935 TO 1038 UNI GY -2.8
LOAD 6 LOADTYPE Live  TITLE LL
MEMBER LOAD
121 TO 127 129 TO 153 158 TO 176 183 TO 191 195 TO 201 203 TO 209 211 TO 214 -
217 TO 233 235 TO 242 244 TO 247 400 TO 406 408 TO 432 437 TO 450 454 455 -
462 TO 470 472 TO 478 480 TO 490 493 TO 509 511 TO 518 520 TO 523 -
667 TO 673 675 TO 699 704 TO 717 721 722 729 TO 737 739 TO 745 747 TO 757 -
760 TO 776 778 TO 785 787 TO 790 935 TO 1038 UNI GY -3.4
LOAD COMB 7 ULC, 1 DEAD
5 1.0 
LOAD COMB 8 ULC, 1 DEAD + 1 LIVE
5 1.0 6 1.0 
LOAD COMB 9 ULC, 1 DEAD + 0.75 LIVE
5 1.0 6 0.75 
LOAD COMB 10 ULC, 1 DEAD + 1 WIND (1)
5 1.0 3 1.0 
LOAD COMB 11 ULC, 1 DEAD + 1 WIND (2)
5 1.0 4 1.0 
LOAD COMB 12 ULC, 1 DEAD + 0.7 SEISMIC (1)
5 1.0 1 0.7 
LOAD COMB 13 ULC, 1 DEAD + 0.7 SEISMIC (2)
5 1.0 2 0.7 
LOAD COMB 14 ULC, 1 DEAD + -0.7 SEISMIC (1)
5 1.0 1 -0.7 
LOAD COMB 15 ULC, 1 DEAD + -0.7 SEISMIC (2)
5 1.0 2 -0.7 
LOAD COMB 16 ULC, 1 DEAD + 0.75 LIVE + 0.75 WIND (1)
5 1.0 6 0.75 3 0.75 
LOAD COMB 17 ULC, 1 DEAD + 0.75 LIVE + 0.75 WIND (2)
5 1.0 6 0.75 4 0.75 
LOAD COMB 18 ULC, 1 DEAD + 0.75 LIVE + 0.525 SEISMIC (1)
5 1.0 6 0.75 1 0.525 
LOAD COMB 19 ULC, 1 DEAD + 0.75 LIVE + 0.525 SEISMIC (2)
5 1.0 6 0.75 2 0.525 
LOAD COMB 20 ULC, 1 DEAD + 0.75 LIVE + -0.525 SEISMIC (1)
5 1.0 6 0.75 1 -0.525 
LOAD COMB 21 ULC, 1 DEAD + 0.75 LIVE + -0.525 SEISMIC (2)
5 1.0 6 0.75 2 -0.525 
LOAD COMB 22 ULC, 0.6 DEAD + 1 WIND (1)
5 0.6 3 1.0 
LOAD COMB 23 ULC, 0.6 DEAD + 1 WIND (2)
5 0.6 4 1.0 
LOAD COMB 24 ULC, 0.6 DEAD + 0.7 SEISMIC (1)
5 0.6 1 0.7 
LOAD COMB 25 ULC, 0.6 DEAD + 0.7 SEISMIC (2)
5 0.6 2 0.7 
LOAD COMB 26 ULC, 0.6 DEAD + -0.7 SEISMIC (1)
5 0.6 1 -0.7 
LOAD COMB 27 ULC, 0.6 DEAD + -0.7 SEISMIC (2)
5 0.6 2 -0.7 
PERFORM ANALYSIS
PARAMETER 1
CODE AISC UNIFIED 2016
FU 413688 ALL
FYLD 420000 ALL
LY 3 MEMB 546 TO 554 556 TO 565 567 TO 575 582 TO 588 591 592 602 TO 636 791 -
792 TO 934
LZ 3 MEMB 546 TO 554 556 TO 565 567 TO 575 582 TO 588 591 592 602 TO 636 791 -
792 TO 934
LX 3.6 MEMB 65 TO 73 75 TO 84 86 TO 94 101 TO 111
LX 3 MEMB 546 TO 554 556 TO 565 567 TO 575 582 TO 588 591 592 602 TO 636 791 -
792 TO 934
LY 3.6 MEMB 65 TO 73 75 TO 84 86 TO 94 101 TO 111
LZ 3.6 MEMB 65 TO 73 75 TO 84 86 TO 94 101 TO 111
UNL 3 MEMB 121 TO 127 129 TO 153 158 TO 176 183 TO 191 195 TO 201 203 TO 209 -
211 TO 214 217 TO 233 235 TO 242 244 TO 247 400 TO 406 408 TO 432 -
437 TO 450 454 455 462 TO 470 472 TO 478 480 TO 490 493 TO 509 511 TO 518 -
520 TO 523 546 TO 554 556 TO 565 567 TO 575 582 TO 588 591 592 602 TO 636 -
667 TO 673 675 TO 699 704 TO 717 721 722 729 TO 737 739 TO 745 747 TO 757 -
760 TO 776 778 TO 785 787 TO 1038
KX 1 MEMB 65 TO 73 75 TO 84 86 TO 94 101 TO 111 546 TO 554 556 TO 565 567 -
568 TO 575 582 TO 588 591 592 602 TO 636 791 TO 934
KY 1 MEMB 65 TO 73 75 TO 84 86 TO 94 101 TO 111 546 TO 554 556 TO 565 567 -
568 TO 575 582 TO 588 591 592 602 TO 636 791 TO 934
KZ 1 MEMB 65 TO 73 75 TO 84 86 TO 94 101 TO 111 546 TO 554 556 TO 565 567 -
568 TO 575 582 TO 588 591 592 602 TO 636 791 TO 934
UNL 3.6 MEMB 65 TO 73 75 TO 84 86 TO 94 101 TO 111
CHECK CODE ALL
PARAMETER 2
CODE AISC UNIFIED 2016
SELECT OPTIMIZED
PARAMETER 3
CODE AISC UNIFIED 2016
STEEL TAKE OFF ALL
PARAMETER 4
CODE AISC UNIFIED 2016
STEEL MEMBER TAKE OFF ALL
FINISH
